################# geometry #################

neighbor	1.0 bin
neigh_modify delay 5 every 1

lattice 	fcc 0.8389
Lattice spacing in x,y,z = 1.68313 1.68313 1.68313

region 		sim_box block 	0 25 0 25 0 25 units box
region 		liq_init block 	0 25 0 25 0 25 units box

################# create and initialize atoms {if not restarting} #############################

create_box	1 sim_box
Created orthogonal box = (0 0 0) to (25 25 25)

create_atoms	1 region liq_init
Created 13500 atoms

mass		1 1

# LJ potentials
pair_style	lj/cut 4
pair_coeff	* * 1.0 1.0 4

########### computes and fixes ##################################

#compute ke all ke/atom
#compute epair all pe/atom
#compute stress all stress/atom

### only needed if not restarting ###
velocity     all create 1 482778 dist gaussian

fix 1 all nve
fix 2 all temp/rescale 100 1 0.709515 0.01 1.0

fix 3 all rdf 500 /home/dtlussier/rdfval2/rdf_from_beginning.dat 100 1 1

# THis is for newer version of LAMMPS
# compute myRDF all rdf 100
# fix 2 all ave/time 100 1 100 c_myRDF file tmp.rdf mode vector

###################### EQULIBRATION ###############################################

timestep		0.005
thermo_style	custom step temp press pe ke etotal enthalpy epair vol pxx pyy pzz pxy pxz pyz xlo xhi ylo yhi zlo zhi
thermo			1000

# creates dumps directory - so DO NOT MAKE BEFORE
shell			mkdir /home/dtlussier/rdfval2/dumps
dump			mydump all custom 10000 /home/dtlussier/rdfval2/dumps/dump_argon_state_rdfval2_*.out id type mass x y z ix iy iz xs ys zs xu yu zu vx vy vz fx fy fz

minimize 1.0e-4 1.0e-6 1000 100000
Step Temp Press PotEng KinEng TotEng Enthalpy E_pair Volume Pxx Pyy Pzz Pxy Pxz Pyz Xlo Xhi Ylo Yhi Zlo Zhi
0            1   -3.9613314   -6.9045944    1.4998889   -5.4047056   -9.9895799   -6.9045944        15625   -3.9715287   -3.9583432   -3.9541224 -0.0071580361 0.0021962391 -0.003032285            0           25            0           25            0           25
Loop time of 0.382264 on 16 procs for 9 steps with 13500 atoms

Minimization stats:
  Stopping criterion = energy tolerance
  Energy initial, next-to-last, final =
  Force two-norm initial, final = 5697.99 65.2701
  Force max component initial, final = 525.454 6.89137
  Final line search alpha, max atom move = 0.0005734 0.00395151
  Iterations, force evaluations = 9 25

Pair  time (%) = 0.143857 (37.6329)
Neigh time (%) = 0 (0)
Comm  time (%) = 0.0749484 (19.6065)
Outpt time (%) = 0 (0)
Other time (%) = 0.163458 (42.7606)

run	 500000 upto
Step Temp Press PotEng KinEng TotEng Enthalpy E_pair Volume Pxx Pyy Pzz Pxy Pxz Pyz Xlo Xhi Ylo Yhi Zlo Zhi
9            1   -5.8275589    -7.287962    1.4998889   -5.7880731   -12.532933    -7.287962        15625   -5.8377561   -5.8245707   -5.8203498 -0.0071580361 0.0021962391 -0.003032285            0           25            0           25            0           25
Averages over the last 251 of 501 rows, steps 250000 to 500000:
Temp Press PotEng KinEng TotEng Enthalpy E_pair Volume Pxx Pyy Pzz Pxy Pxz Pyz Xlo Xhi Ylo Yhi Zlo Zhi
0.782774 1.11074 -6.0166 1.17407 -4.84252 -3.55694 -6.0166 15625 1.11359 1.10934 1.10929 -0.00150712 -0.00238311 -0.00327904 0 25 0 25 0 25
Loop time of 5896.62 on 16 procs for 499991 steps with 13500 atoms

Pair  time (%) = 2552.69 (43.2907)
Neigh time (%) = 179.252 (3.03991)
Comm  time (%) = 2423.96 (41.1077)
Outpt time (%) = 7.9566 (0.134935)
Other time (%) = 732.754 (12.4267)

unfix 2

run 50000
Step Temp Press PotEng KinEng TotEng Enthalpy E_pair Volume Pxx Pyy Pzz Pxy Pxz Pyz Xlo Xhi Ylo Yhi Zlo Zhi
500000   0.71292241   0.60451288   -6.1066697    1.0693044   -5.0373653   -4.3376976   -6.1066697        15625   0.69114508   0.53018644   0.59220713 -0.010269504 -0.055953421  0.028283836            0           25            0           25            0           25
Averages over the last 26 of 51 rows, steps 525000 to 550000:
Temp Press PotEng KinEng TotEng Enthalpy E_pair Volume Pxx Pyy Pzz Pxy Pxz Pyz Xlo Xhi Ylo Yhi Zlo Zhi
0.710215 0.623032 -6.10263 1.06524 -5.03738 -4.31628 -6.10263 15625 0.624154 0.632961 0.611981 -0.00514457 -0.000488723 -0.00743847 0 25 0 25 0 25
Loop time of 1093.84 on 16 procs for 50000 steps with 13500 atoms

Pair  time (%) = 255.519 (23.3598)
Neigh time (%) = 16.0781 (1.46987)
Comm  time (%) = 560.15 (51.2095)
Outpt time (%) = 0.78845 (0.0720808)
Other time (%) = 261.305 (23.8888)

fix 4 all rdf 500 /home/dtlussier/rdfval2/rdf_run.dat 100 1 1

Step Temp Press PotEng KinEng TotEng Enthalpy E_pair Volume Pxx Pyy Pzz Pxy Pxz Pyz Xlo Xhi Ylo Yhi Zlo Zhi
550000   0.70904061   0.60595327   -6.1008359    1.0634821   -5.0373537   -4.3360189   -6.1008359        15625   0.57856267   0.62155188   0.61774525 -0.054192021  0.040517435 -0.036475037            0           25            0           25            0           25
Averages over the last 101 of 201 rows, steps 650000 to 750000:
Temp Press PotEng KinEng TotEng Enthalpy E_pair Volume Pxx Pyy Pzz Pxy Pxz Pyz Xlo Xhi Ylo Yhi Zlo Zhi
0.710039 0.622554 -6.10237 1.06498 -5.03739 -4.31685 -6.10237 15625 0.619548 0.624596 0.623518 -0.00668677 0.00280672 -0.00721857 0 25 0 25 0 25
Loop time of 4501.41 on 16 procs for 200000 steps with 13500 atoms

Pair  time (%) = 1022.06 (22.7053)
Neigh time (%) = 64.4658 (1.43212)
Comm  time (%) = 2314.93 (51.4269)
Outpt time (%) = 3.68065 (0.0817667)
Other time (%) = 1096.27 (24.3539)
