LAMMPS (27 Mar 2011)
Processor partition = 2
# Parallel replica dynamics model for a single vacancy in bulk Si
# events occur when a neighboring atom diffuses to the vacant site
# run this on multiple partitions as
#   mpirun -np 4 lmp_g++ -partition 4x1 -in in.prd

units           metal

atom_style      atomic
atom_modify     map array
boundary        p p p
atom_modify	sort 0 0.0

# temperature

variable t equal 1800.0

# coordination number cutoff

variable r equal 2.835

# minimization parameters

variable etol equal 1.0e-5
variable ftol equal 1.0e-5
variable maxiter equal 100
variable maxeval equal 100
variable dmax equal 1.0e-1

# diamond unit cell

variable a equal 5.431
lattice         custom $a                               a1 1.0 0.0 0.0                          a2 0.0 1.0 0.0                          a3 0.0 0.0 1.0                          basis 0.0 0.0 0.0                       basis 0.0 0.5 0.5                       basis 0.5 0.0 0.5                       basis 0.5 0.5 0.0                       basis 0.25 0.25 0.25                    basis 0.25 0.75 0.75                    basis 0.75 0.25 0.75                    basis 0.75 0.75 0.25
lattice         custom 5.431                               a1 1.0 0.0 0.0                          a2 0.0 1.0 0.0                          a3 0.0 0.0 1.0                          basis 0.0 0.0 0.0                       basis 0.0 0.5 0.5                       basis 0.5 0.0 0.5                       basis 0.5 0.5 0.0                       basis 0.25 0.25 0.25                    basis 0.25 0.75 0.75                    basis 0.75 0.25 0.75                    basis 0.75 0.75 0.25
Lattice spacing in x,y,z = 5.431 5.431 5.431

region          myreg block     0 4                                 0 4                                 0 4
create_box      1 myreg
Created orthogonal box = (0 0 0) to (21.724 21.724 21.724)
create_atoms    1 region myreg
Created 512 atoms

mass            1       28.06

group Si type 1
512 atoms in group Si

velocity all create $t 5287287 mom yes rot yes dist gaussian
velocity all create 1800 5287287 mom yes rot yes dist gaussian

# make a vacancy

group del id 300
1 atoms in group del
delete_atoms group del
Deleted 1 atoms, new total = 511

pair_style      sw
pair_coeff * * Si.sw Si

thermo          10

fix             1 all nvt temp $t $t 0.1
fix             1 all nvt temp 1800 $t 0.1
fix             1 all nvt temp 1800 1800 0.1

timestep        1.0e-3
neighbor        1.0 bin
neigh_modify    every 1 delay 10 check yes

# equilibrate

run             1000
Step Temp E_pair E_mol TotEng Press
0    1802.5039    -2211.666            0   -2092.8401    12351.692
Averages over the last 51 of 101 rows, steps 500 to 1000:
Temp E_pair E_mol TotEng Press
1825.82 -2080.73 0 -1960.37 13517.1
Loop time of 3.86951 on 1 procs for 1000 steps with 511 atoms

Pair  time (%) = 3.78222 (97.7443)
Neigh time (%) = 0.0427818 (1.10561)
Comm  time (%) = 0.0135326 (0.349725)
Outpt time (%) = 0.00138354 (0.035755)
Other time (%) = 0.0295873 (0.764627)

# only output atoms near vacancy

compute coord all coord/atom $r
compute coord all coord/atom 2.835
dump events all custom 1 dump.prd id type x y z
dump_modify events thresh c_coord != 4

compute  patom all pe/atom
compute  pe all reduce sum c_patom
compute  satom all stress/atom
compute  str all reduce sum c_satom[1] c_satom[2] c_satom[3]
variable press equal (c_str[1]+c_str[2]+c_str[3])/(3*vol)

thermo_style custom step temp pe c_pe press v_press

compute         1 all event/displace 0.5

prd  2000 100 10 10 100 1 54985 temp 1800      min 1e-05 1e-05 100 100 vel all uniform
Step Temp PotEng pe Press press
1000    1764.9513   -2091.5262   -2091.5262      13614.2     -13614.2
Loop time of 0.0829132 on 1 procs for 18 steps with 511 atoms
Step Temp PotEng pe Press press
1000    1764.9513   -2091.5262   -2091.5262      13614.2     -13614.2
Loop time of 0.40147 on 1 procs for 100 steps with 511 atoms
Step Temp PotEng pe Press press
1000    1715.8133   -2082.4654   -2082.4654    13193.661   -13193.661
Loop time of 0.409442 on 1 procs for 100 steps with 511 atoms
Step Temp PotEng pe Press press
1100    1727.8922   -2083.9031   -2083.9031    13038.694   -13038.694
Loop time of 0.0825701 on 1 procs for 18 steps with 511 atoms
Step Temp PotEng pe Press press
1100    1727.8922   -2085.5621   -2085.5621    12277.055   -12277.055
Loop time of 0.404857 on 1 procs for 100 steps with 511 atoms
Step Temp PotEng pe Press press
1200    1912.8176   -2091.6206   -2091.6206    14075.801   -14075.801
Loop time of 0.08847 on 1 procs for 19 steps with 511 atoms
Step Temp PotEng pe Press press
1200    1912.8176   -2091.6206   -2091.6206    14075.801   -14075.801
Loop time of 0.4023 on 1 procs for 100 steps with 511 atoms
Step Temp PotEng pe Press press
1200    1817.4069    -2088.158    -2088.158    11477.319   -11477.319
Loop time of 0.406179 on 1 procs for 100 steps with 511 atoms
Step Temp PotEng pe Press press
1300    1855.6542   -2082.3133   -2082.3133     13072.26    -13072.26
Loop time of 0.0832541 on 1 procs for 19 steps with 511 atoms
Step Temp PotEng pe Press press
1300    1855.6542    -2087.163    -2087.163    13306.606   -13306.606
Loop time of 0.407173 on 1 procs for 100 steps with 511 atoms
Step Temp PotEng pe Press press
1400    1872.7191   -2081.8353   -2081.8353    13073.794   -13073.794
Loop time of 0.082969 on 1 procs for 19 steps with 511 atoms
Step Temp PotEng pe Press press
1400    1872.7191   -2081.8353   -2081.8353    13073.794   -13073.794
Loop time of 0.410289 on 1 procs for 100 steps with 511 atoms
Step Temp PotEng pe Press press
1400    1825.4626   -2075.5562   -2075.5562     13605.18    -13605.18
Loop time of 0.407191 on 1 procs for 100 steps with 511 atoms
Step Temp PotEng pe Press press
1500    1886.5398   -2076.6018   -2076.6018    12767.753   -12767.753
Loop time of 0.085706 on 1 procs for 19 steps with 511 atoms
Step Temp PotEng pe Press press
1500    1886.5398   -2076.6018   -2076.6018    12767.753   -12767.753
Loop time of 0.410306 on 1 procs for 100 steps with 511 atoms
Step Temp PotEng pe Press press
1600    1827.5395   -2080.1465   -2080.1465    12167.977   -12167.977
Loop time of 0.0679748 on 1 procs for 18 steps with 511 atoms
Step Temp PotEng pe Press press
1600    1827.5395   -2080.1465   -2080.1465    12167.977   -12167.977
Loop time of 0.403318 on 1 procs for 100 steps with 511 atoms
Step Temp PotEng pe Press press
1700    1794.7226   -2087.6647   -2087.6647    12398.897   -12398.897
Loop time of 0.0875909 on 1 procs for 19 steps with 511 atoms
Step Temp PotEng pe Press press
1700    1794.7226   -2087.6647   -2087.6647    12398.897   -12398.897
Loop time of 0.403541 on 1 procs for 100 steps with 511 atoms
Step Temp PotEng pe Press press
1800    1711.0215   -2086.3241   -2086.3241    13726.547   -13726.547
Loop time of 0.0716879 on 1 procs for 17 steps with 511 atoms
Step Temp PotEng pe Press press
1800    1711.0215   -2086.3241   -2086.3241    13726.547   -13726.547
Loop time of 0.405354 on 1 procs for 100 steps with 511 atoms
Step Temp PotEng pe Press press
1900     1718.085   -2084.8514   -2084.8514    12035.048   -12035.048
Loop time of 0.0805008 on 1 procs for 18 steps with 511 atoms
Step Temp PotEng pe Press press
1900     1718.085   -2084.8514   -2084.8514    12035.048   -12035.048
Loop time of 0.404571 on 1 procs for 100 steps with 511 atoms
Step Temp PotEng pe Press press
1900    1800.9624    -2087.837    -2087.837    13177.288   -13177.288
Loop time of 0.409858 on 1 procs for 100 steps with 511 atoms
Step Temp PotEng pe Press press
2000    1872.4408    -2084.874    -2084.874    11429.205   -11429.205
Loop time of 0.0984049 on 1 procs for 21 steps with 511 atoms
Step Temp PotEng pe Press press
2000    1872.4408    -2084.874    -2084.874    11429.205   -11429.205
Loop time of 0.409143 on 1 procs for 100 steps with 511 atoms
Step Temp PotEng pe Press press
2100    1975.4045   -2086.2999   -2086.2999    14179.349   -14179.349
Loop time of 0.07934 on 1 procs for 19 steps with 511 atoms
Step Temp PotEng pe Press press
2100    1975.4045   -2082.9637   -2082.9637    12710.356   -12710.356
Loop time of 0.412743 on 1 procs for 100 steps with 511 atoms
Step Temp PotEng pe Press press
2200    1950.2952   -2083.1832   -2083.1832    12303.724   -12303.724
Loop time of 0.10001 on 1 procs for 22 steps with 511 atoms
Step Temp PotEng pe Press press
2200    1950.2952   -2083.1832   -2083.1832    12303.724   -12303.724
Loop time of 0.408337 on 1 procs for 100 steps with 511 atoms
Step Temp PotEng pe Press press
2200    1833.1591   -2079.2373   -2079.2373    14690.562   -14690.562
Loop time of 0.405848 on 1 procs for 100 steps with 511 atoms
Step Temp PotEng pe Press press
2300    1874.5715   -2088.3257   -2088.3257    13479.591   -13479.591
Loop time of 0.068012 on 1 procs for 18 steps with 511 atoms
Step Temp PotEng pe Press press
2300    1874.5715   -2088.3257   -2088.3257    13479.591   -13479.591
Loop time of 0.406805 on 1 procs for 100 steps with 511 atoms
Step Temp PotEng pe Press press
2400    1718.6191   -2083.3981   -2083.3981    12564.395   -12564.395
Loop time of 0.0702372 on 1 procs for 17 steps with 511 atoms
Step Temp PotEng pe Press press
2400    1718.6191   -2083.3981   -2083.3981    12564.395   -12564.395
Loop time of 0.40278 on 1 procs for 100 steps with 511 atoms
Step Temp PotEng pe Press press
2400    1761.2282   -2078.6184   -2078.6184    12685.303   -12685.303
Loop time of 0.407317 on 1 procs for 100 steps with 511 atoms
Step Temp PotEng pe Press press
2500    1749.4477   -2082.4239   -2082.4239    13138.948   -13138.948
Loop time of 0.091347 on 1 procs for 22 steps with 511 atoms
Step Temp PotEng pe Press press
2500    1749.4477   -2085.5282   -2085.5282    13026.011   -13026.011
Loop time of 0.406918 on 1 procs for 100 steps with 511 atoms
Step Temp PotEng pe Press press
2600    1791.7534   -2094.3153   -2094.3153    13816.645   -13816.645
Loop time of 0.069011 on 1 procs for 16 steps with 511 atoms
Loop time of 0.401977 on 1 procs for 100 steps with 511 atoms
Loop time of 0.40459 on 1 procs for 100 steps with 511 atoms
Loop time of 0.078146 on 1 procs for 17 steps with 511 atoms
Loop time of 0.406149 on 1 procs for 100 steps with 511 atoms
Loop time of 0.0863049 on 1 procs for 19 steps with 511 atoms
Loop time of 0.405185 on 1 procs for 100 steps with 511 atoms
Loop time of 0.0724921 on 1 procs for 18 steps with 511 atoms
Loop time of 0.404583 on 1 procs for 100 steps with 511 atoms
Loop time of 0.0929589 on 1 procs for 21 steps with 511 atoms
Loop time of 13.0575 on 1 procs for 21 steps with 511 atoms

PRD stats:
  Dephase  time (%) = 2.83172 (21.6866)
  Dynamics time (%) = 8.1365 (62.3128)
  Quench   time (%) = 1.63699 (12.5368)
  Other    time (%) = 0.275642 (2.11098)
