LAMMPS (27 Mar 2011)
# 2d SRD test: big + small particles

units		lj
atom_style	colloid
atom_modify	first big
dimension	2

# create big particles with sigma 1.0

lattice		sq 0.4
Lattice spacing in x,y,z = 1.58114 1.58114 1.58114
region		box block 0 10 0 10 -0.5 0.5
create_box	2 box
Created orthogonal box = (0 0 -0.790569) to (15.8114 15.8114 0.790569)
create_atoms	1 region box
Created 100 atoms
mass		1 1.0
mass		2 0.01

shape		1 1.0 1.0 1.0
shape		2 0.0 0.0 0.0

group		big type 1
100 atoms in group big
velocity	big create 1.44 87287 loop geom

# equilibrate big particles

pair_style	lj/cut 2.5
pair_coeff	1 1 1.0 1.0
pair_coeff	2 2 0.0 1.0 0.0
pair_coeff	1 2 0.0 1.0 0.0

neighbor	0.3 bin
neigh_modify	delay 0 every 1 check yes

fix		1 big nve
fix		2 all enforce2d

run		1000
Step Temp E_pair E_mol TotEng Press
0         1.44     -0.54272            0      0.88288    -0.041088
Loop time of 0.0258421 on 4 procs for 1000 steps with 100 atoms

Pair  time (%) = 0.00398111 (15.4056)
Neigh time (%) = 0.00100678 (3.8959)
Comm  time (%) = 0.0163288 (63.1869)
Outpt time (%) = 4.4167e-05 (0.170911)
Other time (%) = 0.0044812 (17.3407)

unfix		1
unfix		2

# add small particles as hi density lattice

lattice		sq 0.4
Lattice spacing in x,y,z = 1.58114 1.58114 1.58114
region		plane block 0 10 0 10 -0.001 0.001
lattice		sq 85.0
Lattice spacing in x,y,z = 0.108465 0.108465 0.108465
create_atoms	2 region plane
Created 21316 atoms

group		small type 2
21316 atoms in group small

velocity	small create 1.0 593849 loop geom

# delete overlaps
# must set 1-2 cutoff to non-zero value

pair_style	lj/cut 2.5
pair_coeff	1 1 1.0 1.0
pair_coeff	2 2 0.0 1.0 0.0
pair_coeff	1 2 0.0 1.0 0.5

delete_atoms	overlap 0.5 small big
Deleted 6700 atoms, new total = 14716

# SRD run

reset_timestep	0

neighbor	0.3 bin
neigh_modify	delay 0 every 1 check yes

communicate	multi group big vel yes
neigh_modify	include big

# no pairwise interactions with small particles

pair_style	lj/cut 2.5
pair_coeff	1 1 1.0 1.0
pair_coeff	2 2 0.0 1.0 0.0
pair_coeff	1 2 0.0 1.0 0.0

# use fix SRD to push small particles out from inside big ones

timestep	0.001

fix		1 big nve
fix	        2 small srd 20 big 1.0 0.25 49894 		  radius 0.88 search 0.2 collision slip
fix		3 all enforce2d

# diagnostics

compute		tbig big temp
variable	pebig equal pe*atoms/count(big)
variable	ebig equal etotal*atoms/count(big)
thermo_style	custom step temp f_2[7] etotal v_pebig v_ebig press 		f_2[1] f_2[2] f_2[3] f_2[4] f_2[5] 		f_2[6] f_2[8] f_2[9] f_2[10]

thermo_modify	temp tbig
thermo		100
dump		1 all atom 250 dump.srd.mixture

run		5000
SRD info:
  SRD/big particles = 14616 100
  big particle diameter max/min = 0.88 0.88
  SRD temperature & lamda = 1 0.2
  SRD max distance & max velocity = 0.8 40
  SRD grid counts: 63 63 1
  SRD grid size: request, actual (xyz) = 0.25, 0.250974 0.250974 1.58114
  SRD per actual grid cell = 4.86648
  SRD viscosity = 0.463448
  big/SRD mass density ratio = 2.12808
  # of rescaled SRD velocities = 0
  ave/max small velocity = 13.2944 24.262
  ave/max big velocity = 1.69284 5.10989
Step Temp 2[7] TotEng pebig ebig Press 2[1] 2[2] 2[3] 2[4] 2[5] 2[6] 2[8] 2[9] 2[10]
0    1.8791467            0 0.0060376284  -0.97185784    0.8884974   0.61487657            0            0            0            0            0            0            0            0            0
Averages over the last 26 of 51 rows, steps 2500 to 5000:
Temp 2[7] TotEng pebig ebig Press 2[1] 2[2] 2[3] 2[4] 2[5] 2[6] 2[8] 2[9] 2[10]
1.006 3969 -0.000320742 -1.04314 -0.0472004 0.401005 7517.42 87.1154 87.1154 0 0.0769231 22500 3000.27 1.02246 0
Loop time of 1.76678 on 4 procs for 5000 steps with 14716 atoms

Pair  time (%) = 0.0225935 (1.27879)
Neigh time (%) = 0.0765792 (4.33439)
Comm  time (%) = 0.132309 (7.48868)
Outpt time (%) = 0.371439 (21.0235)
Other time (%) = 1.16386 (65.8746)
