LAMMPS (27 Mar 2011)
# 2d micelle simulation

dimension	2

neighbor	0.3 bin
neigh_modify	delay 5

atom_style	bond

# Soft potential push-off

read_data	data.micelle
  orthogonal box = (0 0 -0.1) to (35.8569 35.8569 0.1)
  1200 atoms
  300 bonds
special_bonds	fene

pair_style	soft 1.12246
pair_coeff	* * 0.0 1.12246

bond_style 	harmonic
bond_coeff	1 50.0 0.75

velocity	all create 0.45 2349852

variable	prefactor equal 1.0+elapsed*(20.0-1.0)/1000

fix		1 all nve
fix		2 all temp/rescale 100 0.45 0.45 0.02 1.0
fix		3 all adapt 1 pair soft a * * v_prefactor
fix		4 all enforce2d

thermo		50
run		1000
Step Temp E_pair E_mol TotEng Press
0         0.45   0.40003481 2.2200223e-06   0.84966203   0.78952518
Averages over the last 11 of 21 rows, steps 500 to 1000:
Temp E_pair E_mol TotEng Press
0.482152 0.519869 0.0894584 1.09108 5.4066
Loop time of 0.296398 on 1 procs for 1000 steps with 1200 atoms

Pair  time (%) = 0.200801 (67.747)
Bond  time (%) = 0.0198426 (6.69459)
Neigh time (%) = 0.0258448 (8.71963)
Comm  time (%) = 0.00579762 (1.95603)
Outpt time (%) = 0.000420332 (0.141813)
Other time (%) = 0.0436919 (14.741)

unfix		3

# Main run

pair_style	lj/cut 2.5

# solvent/head - full-size and long-range

pair_coeff	1 1 1.0 1.0 2.5
pair_coeff	2 2 1.0 1.0 2.5
pair_coeff	1 2 1.0 1.0 2.5

# tail/tail - size-averaged and long-range

pair_coeff	3 3 1.0 0.75 2.5
pair_coeff	4 4 1.0 0.50 2.5
pair_coeff	3 4 1.0 0.67 2.5

# solvent/tail - full-size and repulsive

pair_coeff	1 3 1.0 1.0 1.12246
pair_coeff	1 4 1.0 1.0 1.12246

# head/tail - size-averaged and repulsive

pair_coeff	2 3 1.0 0.88 1.12246
pair_coeff	2 4 1.0 0.75 1.12246

thermo		1000
dump		1 all atom 500 dump.micelle

reset_timestep	0
run		60000
Step Temp E_pair E_mol TotEng Press
0         0.45   -1.7056163   0.08808163   -1.1679097    3.9431686
Averages over the last 31 of 61 rows, steps 30000 to 60000:
Temp E_pair E_mol TotEng Press
0.450689 -2.11133 0.0594373 -1.60158 0.70026
Loop time of 24.2876 on 1 procs for 60000 steps with 1200 atoms

Pair  time (%) = 17.1009 (70.41)
Bond  time (%) = 1.19335 (4.91343)
Neigh time (%) = 2.72018 (11.1999)
Comm  time (%) = 0.500614 (2.0612)
Outpt time (%) = 0.22157 (0.912279)
Other time (%) = 2.55096 (10.5032)
