LAMMPS (27 Mar 2011)
# 3d metal shear simulation

units		metal
boundary	s s p

atom_style	atomic
lattice		fcc 3.52
Lattice spacing in x,y,z = 3.52 3.52 3.52
region		box block 0 16.0 0 10.0 0 2.828427
create_box	3 box
Created orthogonal box = (0 0 0) to (56.32 35.2 9.95606)

lattice		fcc 3.52 orient	x 1 0 0 orient y 0 1 1 orient z 0 -1 1 		origin 0.5 0 0
Lattice spacing in x,y,z = 3.52 4.97803 4.97803
create_atoms	1 box
Created 1912 atoms

pair_style	meam
pair_coeff	* * library.meam Ni4 Ni.meam Ni4 Ni4 Ni4

neighbor	0.3 bin
neigh_modify	delay 5

region		lower block INF INF INF 0.9 INF INF
region		upper block INF INF 6.1 INF INF INF
group		lower region lower
264 atoms in group lower
group		upper region upper
264 atoms in group upper
group		boundary union lower upper
528 atoms in group boundary
group		mobile subtract all boundary
1384 atoms in group mobile

set		group lower type 2
  264 settings made for type
set		group upper type 3
  264 settings made for type

# void

#region		void cylinder z 8 5 2.5 INF INF
#delete_atoms	region void

# temp controllers

compute		new3d mobile temp
compute		new2d mobile temp/partial 0 1 1

# equilibrate

velocity	mobile create 300.0 5812775 temp new3d
fix		1 all nve
fix		2 boundary setforce 0.0 0.0 0.0

fix		3 mobile temp/rescale 10 300.0 300.0 10.0 1.0
fix_modify	3 temp new3d

thermo		25
thermo_modify	temp new3d

timestep	0.001
run		100
Step Temp E_pair E_mol TotEng Press Volume
0          300   -8232.7767            0   -8179.1466    1387.2089    19539.346
Loop time of 2.5416 on 1 procs for 100 steps with 1912 atoms

Pair  time (%) = 2.50755 (98.6603)
Neigh time (%) = 0.0220699 (0.868349)
Comm  time (%) = 0.00254846 (0.10027)
Outpt time (%) = 0.000214577 (0.00844259)
Other time (%) = 0.00921631 (0.362619)

# shear

velocity	upper set 1.0 0 0
velocity	mobile ramp vx 0.0 1.0 y 1.4 8.6 sum yes

unfix		3
fix		3 mobile temp/rescale 10 300.0 300.0 10.0 1.0
fix_modify	3 temp new2d

dump		1 all atom 100 dump.meam
thermo		100
thermo_modify	temp new2d

reset_timestep	0
run		3000
Step Temp E_pair E_mol TotEng Press Volume
0    300.50853   -8173.6884            0   -8137.8874    4994.9251    19886.554
Averages over the last 16 of 31 rows, steps 1500 to 3000:
Temp E_pair E_mol TotEng Press Volume
302.753 -8037.61 0 -8001.54 6673.5 22287.5
Loop time of 80.2078 on 1 procs for 3000 steps with 1912 atoms

Pair  time (%) = 78.7984 (98.2427)
Neigh time (%) = 0.961029 (1.19817)
Comm  time (%) = 0.0793548 (0.0989364)
Outpt time (%) = 0.0915716 (0.114168)
Other time (%) = 0.277497 (0.345972)
